phen.pdb
 OpenBabel05312102083D

 13 13  0  0  0  0  0  0  0  0999 V2000
   25.9780    5.3270    4.7790 C   0  0  0  0  0  0  0  0  0  0  0  0
   25.2390    4.6960    5.2430 H   0  0  0  0  0  0  0  0  0  0  0  0
   26.3950    5.0740    3.4990 C   0  0  0  0  0  0  0  0  0  0  0  0
   25.9680    4.2440    2.9650 H   0  0  0  0  0  0  0  0  0  0  0  0
   27.3400    5.8600    2.9020 C   0  0  0  0  0  0  0  0  0  0  0  0
   27.6830    5.6320    1.9090 H   0  0  0  0  0  0  0  0  0  0  0  0
   27.8370    6.9210    3.5690 C   0  0  0  0  0  0  0  0  0  0  0  0
   28.5640    7.5630    3.1040 H   0  0  0  0  0  0  0  0  0  0  0  0
   27.4200    7.1960    4.8560 C   0  0  0  0  0  0  0  0  0  0  0  0
   27.8030    8.0420    5.3940 H   0  0  0  0  0  0  0  0  0  0  0  0
   26.4980    6.3790    5.4690 C   0  0  0  0  0  0  0  0  0  0  0  0
   26.1550    6.6750    6.7440 O   0  0  0  0  0  0  0  0  0  0  0  0
   25.5260    6.0480    7.0730 H   0  0  0  0  0  0  0  0  0  0  0  0
  1  2  1  0  0  0  0
  1 11  2  0  0  0  0
  3  1  1  0  0  0  0
  4  3  1  0  0  0  0
  5  3  2  0  0  0  0
  5  7  1  0  0  0  0
  6  5  1  0  0  0  0
  7  9  2  0  0  0  0
  8  7  1  0  0  0  0
  9 10  1  0  0  0  0
  9 11  1  0  0  0  0
 11 12  1  0  0  0  0
 12 13  1  0  0  0  0
M  END
$$$$
